1

   Abaqus 2023                                  Date 15-Mar-2024   Time 10:35:21
   For use by UNIVERSITY OF WYOMING under license from Dassault Systemes or its subsidiary.



                         The Abaqus Software is a product of:

                           Dassault Systemes SIMULIA Corp.
                           1301 Atwood Avenue, Suite 101W
                              Johnston, RI 02919, USA
 


                   The Abaqus Software is available only under license
                   from Dassault Systemes or its subsidiary and may be
                   used or reproduced only in accordance with the terms
                   of such license.
 
                          On machine localhost.localdomain 
                          you are authorized to run
                          Abaqus/Standard until 14-Aug-2024

                          Your site id is: 200000000026686 


 
                    For assistance or any other information you may
                    obtain contact information for your local office
                    from the world wide web at:

                      http://www.3ds.com/products/simulia/locations/

 
                * * * * * * * * * * * * * * * * * * * * * * * * * * * * * * 
                *                                                         * 
                *                   *****************                     * 
                *                   *  N O T I C E  *                     * 
                *                   *****************                     * 
                *                                                         * 
                *                                                         * 
                *                       Abaqus 2023                       * 
                *                                                         * 
                *          BUILD ID: 2022_09_28-12.11.55 183150           * 
                *                                                         * 
                *                                                         * 
                *  Please make sure you are using                         * 
                *  release Abaqus 2023 manuals                            * 
                *  plus the notes accompanying this release.              * 
                *                                                         * 
                *                                                         * 
                *                                                         * 
                *                                                         * 
                *                                                         * 
                *   This program may not be used for commercial purposes  * 
                *           without payment of a commercial fee.          * 
                *                                                         * 
                * * * * * * * * * * * * * * * * * * * * * * * * * * * * * * 


 



     PROCESSING PART, INSTANCE, AND ASSEMBLY INFORMATION
   *******************************************************


     END PROCESSING PART, INSTANCE, AND ASSEMBLY INFORMATION
   ***********************************************************




     OPTIONS BEING PROCESSED
   ***************************


  *Heading
  *Node
  *Element, type=C3D8R
  *Nset, nset=ASSEMBLY_PART-1-1__PICKEDSET8
  *Elset, elset=ASSEMBLY_PART-1-1__PICKEDSET8
  *Nset, nset=ASSEMBLY_DISPX
  *Nset, nset=ASSEMBLY_DISPY
  *Nset, nset=ASSEMBLY_FIXEDCORNER
  *Nset, nset=ASSEMBLY_FIXEDX
  *Nset, nset=ASSEMBLY_FIXEDY
  *Nset, nset=ASSEMBLY_FIXEDZ
  *material, name=MATERIAL-1
  *depvar
  *usermaterial, constants=11
  *solidsection, elset=ASSEMBLY_PART-1-1__PICKEDSET8, controls=EC-1, material=MATERIAL-1
  *sectioncontrols, name=EC-1, hourglass=ENHANCED

 ***WARNING: THE PARAMETER HOURGLASS = ENHANCED ON THE SECTION CONTROLS OPTION 
             IS RELEVANT FOR THESE ELEMENTS: C3D8R, CAX4R, CGAX4R, CPEG4R, 
             CPE4R, CPS4R, M3D4R, S4R, SC8R AND THEIR HYBRID, THERMAL AND 
             PRESSURE COUNTERPARTS WHEREVER APPLICABLE. IT IS ALSO RELEVANT FOR 
             ALL TYPES OF MODIFIED TRIANGULAR AND TETRAHEDRAL ELEMENTS. THIS 
             WARNING CAN BE IGNORED IF THE FEATURE IS APPLIED TO THESE ELEMENT 
             TYPES ONLY.
  *solidsection, elset=ASSEMBLY_PART-1-1__PICKEDSET8, controls=EC-1, material=MATERIAL-1
  *boundary
  *boundary
  *boundary
  *boundary
  *boundary
  *boundary
  *boundary, amplitude=AMP-1
  *boundary
  *boundary
  *boundary
  *boundary
  *boundary
  *boundary
  *boundary, amplitude=AMP-1
  *output, field, frequency=2
  *output, history, frequency=0
  *elementoutput, directions=YES
  *output, field, frequency=2
  *output, history, frequency=0
  *elementoutput, directions=YES
  *output, field, frequency=2
  *output, history, frequency=0
  *elementoutput, directions=YES
  *Step, name=Step-1, nlgeom=YES, inc=2000
  *output, field, frequency=2
  *output, history, frequency=0
  *Step, name=Step-1, nlgeom=YES, inc=2000
  *Step, name=Step-1, nlgeom=YES, inc=2000
  *static
  *boundary, amplitude=AMP-1
  *output, field, frequency=2
  *contactoutput
  *nodeoutput
  *elementoutput, directions=YES
  *output, history, frequency=0
  *endstep
  *boundary
  *boundary
  *boundary
  *boundary
  *boundary
  *boundary
  *Step, name=Step-1, nlgeom=YES, inc=2000
  *static
  *boundary, amplitude=AMP-1
  *endstep

 ***WARNING: OUTPUT REQUEST CF HAS BEEN REMOVED AS THERE ARE NO APPLICABLE 
             LOADS IN THIS STEP



                            P R O B L E M   S I Z E


          NUMBER OF ELEMENTS IS                                     1
          NUMBER OF NODES IS                                        8
          NUMBER OF NODES DEFINED BY THE USER                       8
          TOTAL NUMBER OF VARIABLES IN THE MODEL                   24
          (DEGREES OF FREEDOM PLUS MAX NO. OF ANY LAGRANGE MULTIPLIER
           VARIABLES. INCLUDE *PRINT,SOLVE=YES TO GET THE ACTUAL NUMBER.)



                              END OF USER INPUT PROCESSING



     JOB TIME SUMMARY
       USER TIME (SEC)      =     0.17    
       SYSTEM TIME (SEC)    =     3.00E-02
       TOTAL CPU TIME (SEC) =     0.20    
       WALLCLOCK TIME (SEC) =            0
1

   Abaqus 2023                                  Date 15-Mar-2024   Time 10:35:22
   For use by UNIVERSITY OF WYOMING under license from Dassault Systemes or its subsidiary.

                                                                                               STEP    1  INCREMENT    1
                                                                                          TIME COMPLETED IN THIS STEP   0.00    


                        A N A L Y S I S    D A T A C H E C K




          THE ANALYSIS IS ENDED BECAUSE OF THE PROBLEMS ENCOUNTERED
          LOOK AT THE MSG FILE FOR THE CAUSE OF THE TERMINATION



                              ANALYSIS IS ENDED



                              ANALYSIS DATACHECK COMPLETE
                              WITH      1 ERROR MESSAGES ON THE MSG FILE
                              AND       2 WARNING MESSAGES ON THE DAT FILE



     JOB TIME SUMMARY
       USER TIME (SEC)      =     2.00E-02
       SYSTEM TIME (SEC)    =      0.0    
       TOTAL CPU TIME (SEC) =     2.00E-02
       WALLCLOCK TIME (SEC) =            0
