1

   Abaqus 2023                                  Date 15-Mar-2024   Time 10:35:22
   For use by UNIVERSITY OF WYOMING under license from Dassault Systemes or its subsidiary.

                                                                                 
                                                                                 
 STEP    1     INCREMENT     1     STEP TIME    0.00    


                        A N A L Y S I S    D A T A C H E C K




                        S T E P       1     S T A T I C   A N A L Y S I S


                                                                                          

     AUTOMATIC TIME CONTROL WITH -
          A SUGGESTED INITIAL TIME INCREMENT OF                1.000E-06
          AND A TOTAL TIME PERIOD OF                            1.00    
          THE MINIMUM TIME INCREMENT ALLOWED IS                1.000E-06
          THE MAXIMUM TIME INCREMENT ALLOWED IS                1.000E-02

     LINEAR EQUATION SOLVER TYPE         DIRECT SPARSE

 ***ERROR: USER SUBROUTINE UMAT IS MISSING



     JOB TIME SUMMARY
       USER TIME (SEC)      =     2.00E-02
       SYSTEM TIME (SEC)    =      0.0    
       TOTAL CPU TIME (SEC) =     2.00E-02
       WALLCLOCK TIME (SEC) =            0
       MEMORY PEAK (GB)     =            0
